data/p13uhs0_1247/DSSfiles/p13uhs0_1247--p13udt13219/Lines.dss
New Line.l(r:p13udt391lv-p13ulv1392) Units=km Length=0.0137167 bus1=p13udt391lv.1.2 bus2=p13ulv1392.1.2 switch=n enabled=y phases=2 Linecode=1P_UG_AL_1/0_Brenau_2

New Line.l(r:p13udm1565-p13ulv1393) Units=km Length=0.0127096 bus1=p13udm1565.1.2 bus2=p13ulv1393.1.2 switch=n enabled=y phases=2 Linecode=1P_UG_AL_1/0_Brenau_2

New Line.l(r:p13udm1565-p13ulv37940) Units=km Length=0.0140805 bus1=p13udm1565.1.2 bus2=p13ulv37940.1.2 switch=n enabled=y phases=2 Linecode=1P_UG_AL_1/0_Brenau_2

New Line.l(r:p13udm1571-p13ulv37950) Units=km Length=0.0138148 bus1=p13udm1571.1.2 bus2=p13ulv37950.1.2 switch=n enabled=y phases=2 Linecode=1P_UG_AL_1/0_Brenau_2

New Line.l(r:p13udm1570-p13ulv37945) Units=km Length=0.0115511 bus1=p13udm1570.1.2 bus2=p13ulv37945.1.2 switch=n enabled=y phases=2 Linecode=1P_UG_AL_1/0_Brenau_2

New Line.l(r:p13udm1572-p13ulv37954) Units=km Length=0.0115681 bus1=p13udm1572.1.2 bus2=p13ulv37954.1.2 switch=n enabled=y phases=2 Linecode=1P_UG_AL_1/0_Brenau_2

New Line.l(r:p13udm1570-p13udm1572) Units=km Length=0.00991201 bus1=p13udm1570.1.2 bus2=p13udm1572.1.2 switch=n enabled=y phases=2 Linecode=1P_UG_AL_1/0_Brenau_2

New Line.l(r:p13udm1570-p13udm1571) Units=km Length=0.0099244 bus1=p13udm1571.1.2 bus2=p13udm1570.1.2 switch=n enabled=y phases=2 Linecode=1P_UG_AL_1/0_Brenau_2

New Line.l(r:p13udm1565-p13udm1571) Units=km Length=0.0099244 bus1=p13udm1565.1.2 bus2=p13udm1571.1.2 switch=n enabled=y phases=2 Linecode=1P_UG_AL_4/0_Sweetbriar_2

New Line.l(r:p13udm1565-p13udt391lv) Units=km Length=0.0099244 bus1=p13udt391lv.1.2 bus2=p13udm1565.1.2 switch=n enabled=y phases=2 Linecode=1P_UG_AL_4/0_Sweetbriar_2

New Line.l(r:p13udm1566-p13ulv1397) Units=km Length=0.013124 bus1=p13udm1566.1.2 bus2=p13ulv1397.1.2 switch=n enabled=y phases=2 Linecode=1P_UG_AL_1/0_Brenau_2

New Line.l(r:p13udm1568-p13ulv37931) Units=km Length=0.00969394 bus1=p13udm1568.1.2 bus2=p13ulv37931.1.2 switch=n enabled=y phases=2 Linecode=1P_UG_AL_1/0_Brenau_2

New Line.l(r:p13udm1567-p13ulv37928) Units=km Length=0.0109712 bus1=p13udm1567.1.2 bus2=p13ulv37928.1.2 switch=n enabled=y phases=2 Linecode=1P_UG_AL_1/0_Brenau_2

New Line.l(r:p13udm1567-p13udm1568) Units=km Length=0.0198488 bus1=p13udm1568.1.2 bus2=p13udm1567.1.2 switch=n enabled=y phases=2 Linecode=1P_UG_AL_1/0_Brenau_2

New Line.l(r:p13udm1566-p13udm1568) Units=km Length=0.00992162 bus1=p13udm1566.1.2 bus2=p13udm1568.1.2 switch=n enabled=y phases=2 Linecode=1P_UG_AL_1/0_Brenau_2

New Line.l(r:p13udm1566-p13udt391lv) Units=km Length=0.0099148 bus1=p13udt391lv.1.2 bus2=p13udm1566.1.2 switch=n enabled=y phases=2 Linecode=1P_UG_AL_4/0_Sweetbriar_2

New Line.l(r:p13udt392lv-p13ulv37941) Units=km Length=0.0171668 bus1=p13udt392lv.1.2 bus2=p13ulv37941.1.2 switch=n enabled=y phases=2 Linecode=1P_OH_AL_2/0_Rucina_2

New Line.l(r:p13udt392lv-p13ulv37951) Units=km Length=0.0182627 bus1=p13udt392lv.1.2 bus2=p13ulv37951.1.2 switch=n enabled=y phases=2 Linecode=1P_OH_AL_2/0_Rucina_2

New Line.l(r:p13udm1573-p13ulv1394) Units=km Length=0.018810900000000002 bus1=p13udm1573.1.2 bus2=p13ulv1394.1.2 switch=n enabled=y phases=2 Linecode=1P_OH_AL_2/0_Rucina_2

New Line.l(r:p13udm1573-p13ulv37937) Units=km Length=0.018172400000000002 bus1=p13udm1573.1.2 bus2=p13ulv37937.1.2 switch=n enabled=y phases=2 Linecode=1P_OH_AL_2/0_Rucina_2

New Line.l(r:p13udm1573-p13udt392lv) Units=km Length=0.0182688 bus1=p13udt392lv.1.2 bus2=p13udm1573.1.2 switch=n enabled=y phases=2 Linecode=1P_OH_AL_2/0_Rucina_2

New Line.l(r:p13udt393lv-p13ulv1395) Units=km Length=0.0181054 bus1=p13udt393lv.1.2 bus2=p13ulv1395.1.2 switch=n enabled=y phases=2 Linecode=1P_OH_AL_2/0_Rucina_2

New Line.l(r:p13udt393lv-p13ulv37930) Units=km Length=0.0158481 bus1=p13udt393lv.1.2 bus2=p13ulv37930.1.2 switch=n enabled=y phases=2 Linecode=1P_OH_AL_2/0_Rucina_2

New Line.l(r:p13udm1579-p13ulv37933) Units=km Length=0.0158586 bus1=p13udm1579.1.2 bus2=p13ulv37933.1.2 switch=n enabled=y phases=2 Linecode=1P_OH_AL_2/0_Rucina_2

New Line.l(r:p13udm1579-p13udt393lv) Units=km Length=0.019407600000000004 bus1=p13udt393lv.1.2 bus2=p13udm1579.1.2 switch=n enabled=y phases=2 Linecode=1P_OH_AL_2/0_Rucina_2

New Line.l(r:p13udt394lv-p13ulv37925) Units=km Length=0.012610300000000001 bus1=p13udt394lv.1.2 bus2=p13ulv37925.1.2 switch=n enabled=y phases=2 Linecode=1P_UG_AL_1/0_Brenau_2

New Line.l(r:p13udm1580-p13ulv1396) Units=km Length=0.00860928 bus1=p13udm1580.1.2 bus2=p13ulv1396.1.2 switch=n enabled=y phases=2 Linecode=1P_UG_AL_1/0_Brenau_2

New Line.l(r:p13udm1586-p13ulv37932) Units=km Length=0.025186400000000005 bus1=p13udm1586.1.2 bus2=p13ulv37932.1.2 switch=n enabled=y phases=2 Linecode=1P_UG_AL_1/0_Brenau_2

New Line.l(r:p13udm1585-p13ulv37929) Units=km Length=0.0139863 bus1=p13udm1585.1.2 bus2=p13ulv37929.1.2 switch=n enabled=y phases=2 Linecode=1P_UG_AL_1/0_Brenau_2

New Line.l(r:p13udm1585-p13udm1586) Units=km Length=0.013535 bus1=p13udm1586.1.2 bus2=p13udm1585.1.2 switch=n enabled=y phases=2 Linecode=1P_UG_AL_1/0_Brenau_2

New Line.l(r:p13udm1580-p13udm1586) Units=km Length=0.00598976 bus1=p13udm1580.1.2 bus2=p13udm1586.1.2 switch=n enabled=y phases=2 Linecode=1P_UG_AL_1/0_Brenau_2

New Line.l(r:p13udm1580-p13udt394lv) Units=km Length=0.0071752100000000004 bus1=p13udt394lv.1.2 bus2=p13udm1580.1.2 switch=n enabled=y phases=2 Linecode=1P_UG_AL_1/0_Brenau_2

New Line.l(r:p13udm1583-p13ulv37926) Units=km Length=0.0155303 bus1=p13udm1583.1.2 bus2=p13ulv37926.1.2 switch=n enabled=y phases=2 Linecode=1P_UG_AL_1/0_Brenau_2

New Line.l(r:p13udm1581-p13ulv37899) Units=km Length=0.0110752 bus1=p13udm1581.1.2 bus2=p13ulv37899.1.2 switch=n enabled=y phases=2 Linecode=1P_UG_AL_1/0_Brenau_2

New Line.l(r:p13udm1581-p13udm1583) Units=km Length=0.0285242 bus1=p13udm1583.1.2 bus2=p13udm1581.1.2 switch=n enabled=y phases=2 Linecode=1P_UG_AL_1/0_Brenau_2

New Line.l(r:p13udm1584-p13ulv37927) Units=km Length=0.0186831 bus1=p13udm1584.1.2 bus2=p13ulv37927.1.2 switch=n enabled=y phases=2 Linecode=1P_UG_AL_1/0_Brenau_2

New Line.l(r:p13udm1583-p13udm1584) Units=km Length=0.0146189 bus1=p13udm1583.1.2 bus2=p13udm1584.1.2 switch=n enabled=y phases=2 Linecode=1P_UG_AL_1/0_Brenau_2

New Line.l(r:p13udm1583-p13udt394lv) Units=km Length=0.0141197 bus1=p13udt394lv.1.2 bus2=p13udm1583.1.2 switch=n enabled=y phases=2 Linecode=1P_UG_AL_4/0_Sweetbriar_2

New Line.l(r:p13udm1593-p13ulv39110) Units=km Length=0.0171828 bus1=p13udm1593.1.2 bus2=p13ulv39110.1.2 switch=n enabled=y phases=2 Linecode=1P_UG_AL_1/0_Brenau_2

New Line.l(r:p13udm1588-p13ulv37913) Units=km Length=0.0163712 bus1=p13udm1588.1.2 bus2=p13ulv37913.1.2 switch=n enabled=y phases=2 Linecode=1P_UG_AL_1/0_Brenau_2

New Line.l(r:p13udm1588-p13ulv39107) Units=km Length=0.0183716 bus1=p13udm1588.1.2 bus2=p13ulv39107.1.2 switch=n enabled=y phases=2 Linecode=1P_UG_AL_1/0_Brenau_2

New Line.l(r:p13udm1588-p13udm1593) Units=km Length=0.00676172 bus1=p13udm1593.1.2 bus2=p13udm1588.1.2 switch=n enabled=y phases=2 Linecode=1P_UG_AL_1/0_Brenau_2

New Line.l(r:p13udm1593-p13udt395lv) Units=km Length=0.0147053 bus1=p13udt395lv.1.2 bus2=p13udm1593.1.2 switch=n enabled=y phases=2 Linecode=1P_UG_AL_2/0_Converse_2

New Line.l(r:p13udm1594-p13ulv39112) Units=km Length=0.017558700000000003 bus1=p13udm1594.1.2 bus2=p13ulv39112.1.2 switch=n enabled=y phases=2 Linecode=1P_UG_AL_1/0_Brenau_2

New Line.l(r:p13udm1589-p13ulv37914) Units=km Length=0.0126555 bus1=p13udm1589.1.2 bus2=p13ulv37914.1.2 switch=n enabled=y phases=2 Linecode=1P_UG_AL_1/0_Brenau_2

New Line.l(r:p13udm1591-p13ulv37924) Units=km Length=0.041546900000000005 bus1=p13udm1591.1.2 bus2=p13ulv37924.1.2 switch=n enabled=y phases=2 Linecode=1P_UG_AL_1/0_Brenau_2

New Line.l(r:p13udm1587-p13ulv1398) Units=km Length=0.00898481 bus1=p13udm1587.1.2 bus2=p13ulv1398.1.2 switch=n enabled=y phases=2 Linecode=1P_UG_AL_1/0_Brenau_2

New Line.l(r:p13udm1590-p13ulv37921) Units=km Length=0.0155974 bus1=p13udm1590.1.2 bus2=p13ulv37921.1.2 switch=n enabled=y phases=2 Linecode=1P_UG_AL_1/0_Brenau_2

New Line.l(r:p13udm1587-p13udm1590) Units=km Length=0.0058045 bus1=p13udm1587.1.2 bus2=p13udm1590.1.2 switch=n enabled=y phases=2 Linecode=1P_UG_AL_1/0_Brenau_2

New Line.l(r:p13udm1587-p13udm1591) Units=km Length=0.0139517 bus1=p13udm1591.1.2 bus2=p13udm1587.1.2 switch=n enabled=y phases=2 Linecode=1P_UG_AL_1/0_Brenau_2

New Line.l(r:p13udm1589-p13udm1591) Units=km Length=0.00697585 bus1=p13udm1589.1.2 bus2=p13udm1591.1.2 switch=n enabled=y phases=2 Linecode=1P_UG_AL_2/0_Converse_2

New Line.l(r:p13udm1589-p13udm1594) Units=km Length=0.007118550000000001 bus1=p13udm1594.1.2 bus2=p13udm1589.1.2 switch=n enabled=y phases=2 Linecode=1P_UG_AL_4/0_Sweetbriar_2

New Line.l(r:p13udm1595-p13ulv39115) Units=km Length=0.0120422 bus1=p13udm1595.1.2 bus2=p13ulv39115.1.2 switch=n enabled=y phases=2 Linecode=1P_UG_AL_1/0_Brenau_2

New Line.l(r:p13udm1596-p13ulv39120) Units=km Length=0.0101093 bus1=p13udm1596.1.2 bus2=p13ulv39120.1.2 switch=n enabled=y phases=2 Linecode=1P_UG_AL_1/0_Brenau_2

New Line.l(r:p13udm1595-p13udm1596) Units=km Length=0.00989436 bus1=p13udm1595.1.2 bus2=p13udm1596.1.2 switch=n enabled=y phases=2 Linecode=1P_UG_AL_1/0_Brenau_2

New Line.l(r:p13udm1594-p13udm1595) Units=km Length=0.0159351 bus1=p13udm1594.1.2 bus2=p13udm1595.1.2 switch=n enabled=y phases=2 Linecode=1P_UG_AL_1/0_Brenau_2

New Line.l(r:p13udm1594-p13udt395lv) Units=km Length=0.00603075 bus1=p13udt395lv.1.2 bus2=p13udm1594.1.2 switch=n enabled=y phases=2 Linecode=1P_UG_AL_4/0_Sweetbriar_2

New Line.l(r:p13udt396lv-p13ulv39039) Units=km Length=0.0146342 bus1=p13udt396lv.1.2 bus2=p13ulv39039.1.2 switch=n enabled=y phases=2 Linecode=1P_UG_AL_1/0_Brenau_2

New Line.l(r:p13udt396lv-p13ulv39071) Units=km Length=0.0125813 bus1=p13udt396lv.1.2 bus2=p13ulv39071.1.2 switch=n enabled=y phases=2 Linecode=1P_UG_AL_1/0_Brenau_2

New Line.l(r:p13udm1597-p13ulv1399) Units=km Length=0.0138532 bus1=p13udm1597.1.2 bus2=p13ulv1399.1.2 switch=n enabled=y phases=2 Linecode=1P_UG_AL_1/0_Brenau_2

New Line.l(r:p13udm1597-p13ulv39069) Units=km Length=0.012634400000000002 bus1=p13udm1597.1.2 bus2=p13ulv39069.1.2 switch=n enabled=y phases=2 Linecode=1P_UG_AL_1/0_Brenau_2

New Line.l(r:p13udm1597-p13udt396lv) Units=km Length=0.0198418 bus1=p13udt396lv.1.2 bus2=p13udm1597.1.2 switch=n enabled=y phases=2 Linecode=1P_UG_AL_2/0_Converse_2

New Line.l(r:p13udm1599-p13ulv39042) Units=km Length=0.0134036 bus1=p13udm1599.1.2 bus2=p13ulv39042.1.2 switch=n enabled=y phases=2 Linecode=1P_UG_AL_1/0_Brenau_2

New Line.l(r:p13udm1599-p13ulv39073) Units=km Length=0.0121923 bus1=p13udm1599.1.2 bus2=p13ulv39073.1.2 switch=n enabled=y phases=2 Linecode=1P_UG_AL_1/0_Brenau_2

New Line.l(r:p13udm1600-p13ulv39043) Units=km Length=0.0151836 bus1=p13udm1600.1.2 bus2=p13ulv39043.1.2 switch=n enabled=y phases=2 Linecode=1P_UG_AL_1/0_Brenau_2

New Line.l(r:p13udm1599-p13udm1600) Units=km Length=0.00992706 bus1=p13udm1599.1.2 bus2=p13udm1600.1.2 switch=n enabled=y phases=2 Linecode=1P_UG_AL_1/0_Brenau_2

New Line.l(r:p13udm1599-p13udt396lv) Units=km Length=0.00991744 bus1=p13udt396lv.1.2 bus2=p13udm1599.1.2 switch=n enabled=y phases=2 Linecode=1P_UG_AL_4/0_Sweetbriar_2

New Line.l(r:p13udt397lv-p13ulv1400) Units=km Length=0.0166725 bus1=p13udt397lv.1.2 bus2=p13ulv1400.1.2 switch=n enabled=y phases=2 Linecode=1P_UG_AL_1/0_Brenau_2

New Line.l(r:p13udt397lv-p13ulv40243) Units=km Length=0.0174032 bus1=p13udt397lv.1.2 bus2=p13ulv40243.1.2 switch=n enabled=y phases=2 Linecode=1P_UG_AL_1/0_Brenau_2

New Line.l(r:p13udm1605-p13ulv1401) Units=km Length=0.014458700000000001 bus1=p13udm1605.1.2 bus2=p13ulv1401.1.2 switch=n enabled=y phases=2 Linecode=1P_UG_AL_2/0_Converse_2

New Line.l(r:p13udm1605-p13udt397lv) Units=km Length=0.00990783 bus1=p13udt397lv.1.2 bus2=p13udm1605.1.2 switch=n enabled=y phases=2 Linecode=1P_UG_AL_2/0_Converse_2

New Line.l(r:p13udm1606-p13ulv1411) Units=km Length=0.0150889 bus1=p13udm1606.1.2 bus2=p13ulv1411.1.2 switch=n enabled=y phases=2 Linecode=1P_UG_AL_1/0_Brenau_2

New Line.l(r:p13udm1606-p13udt397lv) Units=km Length=0.00990783 bus1=p13udt397lv.1.2 bus2=p13udm1606.1.2 switch=n enabled=y phases=2 Linecode=1P_UG_AL_1/0_Brenau_2

New Line.l(r:p13udt398lv-p13ulv1402) Units=km Length=0.0349596 bus1=p13udt398lv.1.2 bus2=p13ulv1402.1.2 switch=n enabled=y phases=2 Linecode=1P_UG_AL_2/0_Converse_2

New Line.l(r:p13udt398lv-p13ulv1403) Units=km Length=0.015511 bus1=p13udt398lv.1.2 bus2=p13ulv1403.1.2 switch=n enabled=y phases=2 Linecode=1P_UG_AL_1/0_Brenau_2

New Line.l(r:p13udm1610-p13ulv41377) Units=km Length=0.014304800000000001 bus1=p13udm1610.1.2 bus2=p13ulv41377.1.2 switch=n enabled=y phases=2 Linecode=1P_UG_AL_1/0_Brenau_2

New Line.l(r:p13udm1610-p13udt398lv) Units=km Length=0.00985154 bus1=p13udt398lv.1.2 bus2=p13udm1610.1.2 switch=n enabled=y phases=2 Linecode=1P_UG_AL_1/0_Brenau_2

New Line.l(r:p13udt399lv-p13ulv1405) Units=km Length=0.014157000000000001 bus1=p13udt399lv.1.2 bus2=p13ulv1405.1.2 switch=n enabled=y phases=2 Linecode=1P_UG_AL_1/0_Brenau_2

New Line.l(r:p13udt399lv-p13ulv40192) Units=km Length=0.0140177 bus1=p13udt399lv.1.2 bus2=p13ulv40192.1.2 switch=n enabled=y phases=2 Linecode=1P_UG_AL_2/0_Converse_2

New Line.l(r:p13udm1611-p13ulv1404) Units=km Length=0.013995 bus1=p13udm1611.1.2 bus2=p13ulv1404.1.2 switch=n enabled=y phases=2 Linecode=1P_UG_AL_1/0_Brenau_2

New Line.l(r:p13udm1611-p13udt399lv) Units=km Length=0.00982541 bus1=p13udt399lv.1.2 bus2=p13udm1611.1.2 switch=n enabled=y phases=2 Linecode=1P_UG_AL_1/0_Brenau_2

New Line.l(r:p13udm1613-p13ulv1700) Units=km Length=0.0155553 bus1=p13udm1613.1.2 bus2=p13ulv1700.1.2 switch=n enabled=y phases=2 Linecode=1P_UG_AL_1/0_Brenau_2

New Line.l(r:p13udm1613-p13ulv40173) Units=km Length=0.0146842 bus1=p13udm1613.1.2 bus2=p13ulv40173.1.2 switch=n enabled=y phases=2 Linecode=1P_UG_AL_1/0_Brenau_2

New Line.l(r:p13udm1613-p13udt399lv) Units=km Length=0.0196412 bus1=p13udt399lv.1.2 bus2=p13udm1613.1.2 switch=n enabled=y phases=2 Linecode=1P_UG_AL_1/0_Brenau_2

New Line.l(r:p13udt400lv-p13ulv1406) Units=km Length=0.0207748 bus1=p13udt400lv.1.2 bus2=p13ulv1406.1.2 switch=n enabled=y phases=2 Linecode=1P_UG_AL_1/0_Brenau_2

New Line.l(r:p13udt400lv-p13ulv40197) Units=km Length=0.0153601 bus1=p13udt400lv.1.2 bus2=p13ulv40197.1.2 switch=n enabled=y phases=2 Linecode=1P_UG_AL_1/0_Brenau_2

New Line.l(r:p13udm1617-p13ulv1407) Units=km Length=0.0156712 bus1=p13udm1617.1.2 bus2=p13ulv1407.1.2 switch=n enabled=y phases=2 Linecode=1P_UG_AL_1/0_Brenau_2

New Line.l(r:p13udm1617-p13ulv40188) Units=km Length=0.0158048 bus1=p13udm1617.1.2 bus2=p13ulv40188.1.2 switch=n enabled=y phases=2 Linecode=1P_UG_AL_1/0_Brenau_2

New Line.l(r:p13udm1617-p13udt400lv) Units=km Length=0.009556500000000002 bus1=p13udt400lv.1.2 bus2=p13udm1617.1.2 switch=n enabled=y phases=2 Linecode=1P_UG_AL_1/0_Brenau_2

New Line.l(r:p13udt401lv-p13ulv40183) Units=km Length=0.016047 bus1=p13udt401lv.1.2 bus2=p13ulv40183.1.2 switch=n enabled=y phases=2 Linecode=1P_UG_AL_1/0_Brenau_2

New Line.l(r:p13udm1620-p13ulv1408) Units=km Length=0.0147156 bus1=p13udm1620.1.2 bus2=p13ulv1408.1.2 switch=n enabled=y phases=2 Linecode=1P_UG_AL_2/0_Converse_2

New Line.l(r:p13udm1620-p13ulv40186) Units=km Length=0.0156658 bus1=p13udm1620.1.2 bus2=p13ulv40186.1.2 switch=n enabled=y phases=2 Linecode=1P_UG_AL_1/0_Brenau_2

New Line.l(r:p13udm1620-p13udt401lv) Units=km Length=0.00955917 bus1=p13udt401lv.1.2 bus2=p13udm1620.1.2 switch=n enabled=y phases=2 Linecode=1P_UG_AL_4/0_Sweetbriar_2

New Line.l(r:p13udm1621-p13ulv40178) Units=km Length=0.0142231 bus1=p13udm1621.1.2 bus2=p13ulv40178.1.2 switch=n enabled=y phases=2 Linecode=1P_UG_AL_1/0_Brenau_2

New Line.l(r:p13udm1621-p13udt401lv) Units=km Length=0.009556500000000002 bus1=p13udt401lv.1.2 bus2=p13udm1621.1.2 switch=n enabled=y phases=2 Linecode=1P_UG_AL_1/0_Brenau_2

New Line.l(r:p13udt402lv-p13ulv1409) Units=km Length=0.0168837 bus1=p13udt402lv.1.2 bus2=p13ulv1409.1.2 switch=n enabled=y phases=2 Linecode=1P_UG_AL_1/0_Brenau_2

New Line.l(r:p13udt402lv-p13ulv41360) Units=km Length=0.0216258 bus1=p13udt402lv.1.2 bus2=p13ulv41360.1.2 switch=n enabled=y phases=2 Linecode=1P_UG_AL_1/0_Brenau_2

New Line.l(r:p13udt403lv-p13ulv1410) Units=km Length=0.0138392 bus1=p13udt403lv.1.2 bus2=p13ulv1410.1.2 switch=n enabled=y phases=2 Linecode=1P_UG_AL_1/0_Brenau_2

New Line.l(r:p13udt403lv-p13ulv40199) Units=km Length=0.048637700000000006 bus1=p13udt403lv.1.2 bus2=p13ulv40199.1.2 switch=n enabled=y phases=2 Linecode=1P_UG_AL_1/0_Brenau_2

New Line.l(r:p13udt403lv-p13ulv40212) Units=km Length=0.0160169 bus1=p13udt403lv.1.2 bus2=p13ulv40212.1.2 switch=n enabled=y phases=2 Linecode=1P_UG_AL_1/0_Brenau_2

New Line.l(r:p13udt404lv-p13ulv42561) Units=km Length=0.0171799 bus1=p13udt404lv.1.2 bus2=p13ulv42561.1.2 switch=n enabled=y phases=2 Linecode=1P_UG_AL_1/0_Brenau_2

New Line.l(r:p13udt404lv-p13ulv42563) Units=km Length=0.0170891 bus1=p13udt404lv.1.2 bus2=p13ulv42563.1.2 switch=n enabled=y phases=2 Linecode=1P_UG_AL_1/0_Brenau_2

New Line.l(r:p13udm1629-p13ulv1412) Units=km Length=0.0103033 bus1=p13udm1629.1.2 bus2=p13ulv1412.1.2 switch=n enabled=y phases=2 Linecode=1P_UG_AL_4/0_Sweetbriar_2

New Line.l(r:p13udm1629-p13udt404lv) Units=km Length=0.00951467 bus1=p13udt404lv.1.2 bus2=p13udm1629.1.2 switch=n enabled=y phases=2 Linecode=1P_UG_AL_4/0_Sweetbriar_2

New Line.l(r:p13udm1632-p13ulv1413) Units=km Length=0.0109485 bus1=p13udm1632.1.2 bus2=p13ulv1413.1.2 switch=n enabled=y phases=2 Linecode=1P_UG_AL_4/0_Sweetbriar_2

New Line.l(r:p13udm1632-p13udt405lv) Units=km Length=0.00920318 bus1=p13udt405lv.1.2 bus2=p13udm1632.1.2 switch=n enabled=y phases=2 Linecode=1P_UG_AL_4/0_Sweetbriar_2

New Line.l(r:p13udm1633-p13ulv42558) Units=km Length=0.016882400000000002 bus1=p13udm1633.1.2 bus2=p13ulv42558.1.2 switch=n enabled=y phases=2 Linecode=1P_UG_AL_1/0_Brenau_2

New Line.l(r:p13udm1633-p13udt405lv) Units=km Length=0.009204880000000002 bus1=p13udt405lv.1.2 bus2=p13udm1633.1.2 switch=n enabled=y phases=2 Linecode=1P_UG_AL_1/0_Brenau_2

New Line.l(r:p13udt407lv-p13ulv42553) Units=km Length=0.0137885 bus1=p13udt407lv.1.2 bus2=p13ulv42553.1.2 switch=n enabled=y phases=2 Linecode=1P_OH_AL_2/0_Rucina_2

New Line.l(r:p13udm1636-p13ulv1415) Units=km Length=0.0136936 bus1=p13udm1636.1.2 bus2=p13ulv1415.1.2 switch=n enabled=y phases=2 Linecode=1P_OH_AL_2/0_Rucina_2

New Line.l(r:p13udm1636-p13udt407lv) Units=km Length=0.0171217 bus1=p13udt407lv.1.2 bus2=p13udm1636.1.2 switch=n enabled=y phases=2 Linecode=1P_OH_AL_2/0_Rucina_2

New Line.l(r:p13udt408lv-p13ulv1416) Units=km Length=0.01499 bus1=p13udt408lv.1.2 bus2=p13ulv1416.1.2 switch=n enabled=y phases=2 Linecode=1P_UG_AL_4/0_Sweetbriar_2

New Line.l(r:p13udt409lv-p13ulv1417) Units=km Length=0.0169107 bus1=p13udt409lv.1.2 bus2=p13ulv1417.1.2 switch=n enabled=y phases=2 Linecode=1P_UG_AL_1/0_Brenau_2

New Line.l(r:p13udm1641-p13ulv42570) Units=km Length=0.017886400000000004 bus1=p13udm1641.1.2 bus2=p13ulv42570.1.2 switch=n enabled=y phases=2 Linecode=1P_UG_AL_1/0_Brenau_2

New Line.l(r:p13udm1641-p13ulv42576) Units=km Length=0.016924000000000005 bus1=p13udm1641.1.2 bus2=p13ulv42576.1.2 switch=n enabled=y phases=2 Linecode=1P_UG_AL_1/0_Brenau_2

New Line.l(r:p13udm1640-p13ulv1418) Units=km Length=0.0149586 bus1=p13udm1640.1.2 bus2=p13ulv1418.1.2 switch=n enabled=y phases=2 Linecode=1P_UG_AL_1/0_Brenau_2

New Line.l(r:p13udm1640-p13udm1641) Units=km Length=0.00978401 bus1=p13udm1641.1.2 bus2=p13udm1640.1.2 switch=n enabled=y phases=2 Linecode=1P_UG_AL_1/0_Brenau_2

New Line.l(r:p13udm1641-p13udt409lv) Units=km Length=0.00978401 bus1=p13udt409lv.1.2 bus2=p13udm1641.1.2 switch=n enabled=y phases=2 Linecode=1P_UG_AL_4/0_Sweetbriar_2

New Line.l(r:p13udm1643-p13ulv42580) Units=km Length=0.0168229 bus1=p13udm1643.1.2 bus2=p13ulv42580.1.2 switch=n enabled=y phases=2 Linecode=1P_UG_AL_1/0_Brenau_2

New Line.l(r:p13udm1643-p13ulv42585) Units=km Length=0.0168062 bus1=p13udm1643.1.2 bus2=p13ulv42585.1.2 switch=n enabled=y phases=2 Linecode=1P_UG_AL_1/0_Brenau_2

New Line.l(r:p13udm1643-p13udt409lv) Units=km Length=0.00978401 bus1=p13udt409lv.1.2 bus2=p13udm1643.1.2 switch=n enabled=y phases=2 Linecode=1P_UG_AL_2/0_Converse_2

New Line.l(r:p13udm1646-p13ulv1421) Units=km Length=0.0126031 bus1=p13udm1646.1.2 bus2=p13ulv1421.1.2 switch=n enabled=y phases=2 Linecode=1P_UG_AL_1/0_Brenau_2

New Line.l(r:p13udm1646-p13ulv41305) Units=km Length=0.0135505 bus1=p13udm1646.1.2 bus2=p13ulv41305.1.2 switch=n enabled=y phases=2 Linecode=1P_UG_AL_1/0_Brenau_2

New Line.l(r:p13udm1645-p13ulv1420) Units=km Length=0.0129149 bus1=p13udm1645.1.2 bus2=p13ulv1420.1.2 switch=n enabled=y phases=2 Linecode=1P_UG_AL_1/0_Brenau_2

New Line.l(r:p13udm1645-p13udm1646) Units=km Length=0.00986866 bus1=p13udm1646.1.2 bus2=p13udm1645.1.2 switch=n enabled=y phases=2 Linecode=1P_UG_AL_1/0_Brenau_2

New Line.l(r:p13udm1646-p13udt410lv) Units=km Length=0.0098783 bus1=p13udt410lv.1.2 bus2=p13udm1646.1.2 switch=n enabled=y phases=2 Linecode=1P_UG_AL_4/0_Sweetbriar_2

New Line.l(r:p13udm1648-p13ulv41314) Units=km Length=0.0116509 bus1=p13udm1648.1.2 bus2=p13ulv41314.1.2 switch=n enabled=y phases=2 Linecode=1P_UG_AL_1/0_Brenau_2

New Line.l(r:p13udm1648-p13ulv41317) Units=km Length=0.013606200000000002 bus1=p13udm1648.1.2 bus2=p13ulv41317.1.2 switch=n enabled=y phases=2 Linecode=1P_UG_AL_1/0_Brenau_2

New Line.l(r:p13udm1650-p13ulv41326) Units=km Length=0.0134098 bus1=p13udm1650.1.2 bus2=p13ulv41326.1.2 switch=n enabled=y phases=2 Linecode=1P_UG_AL_1/0_Brenau_2

New Line.l(r:p13udm1648-p13udm1650) Units=km Length=0.0098783 bus1=p13udm1648.1.2 bus2=p13udm1650.1.2 switch=n enabled=y phases=2 Linecode=1P_UG_AL_1/0_Brenau_2

New Line.l(r:p13udm1648-p13udt410lv) Units=km Length=0.019747 bus1=p13udt410lv.1.2 bus2=p13udm1648.1.2 switch=n enabled=y phases=2 Linecode=1P_UG_AL_4/0_Sweetbriar_2

New Line.l(r:p13udm2219-p13ulv1694) Units=km Length=0.014650500000000002 bus1=p13udm2219.1.2 bus2=p13ulv1694.1.2 switch=n enabled=y phases=2 Linecode=1P_OH_AL_2/0_Rucina_2

New Line.l(r:p13udm2219-p13udt533lv) Units=km Length=0.0104854 bus1=p13udt533lv.1.2 bus2=p13udm2219.1.2 switch=n enabled=y phases=2 Linecode=1P_OH_AL_2/0_Rucina_2

New Line.l(r:p13udm2220-p13ulv1696) Units=km Length=0.0230633 bus1=p13udm2220.1.2 bus2=p13ulv1696.1.2 switch=n enabled=y phases=2 Linecode=1P_OH_AL_2/0_Rucina_2

New Line.l(r:p13udm2220-p13udt533lv) Units=km Length=0.0435164 bus1=p13udt533lv.1.2 bus2=p13udm2220.1.2 switch=n enabled=y phases=2 Linecode=1P_OH_AL_4/0_Zuzara_2

New Line.l(r:p13udt534lv-p13ulv41330) Units=km Length=0.0109231 bus1=p13udt534lv.1.2 bus2=p13ulv41330.1.2 switch=n enabled=y phases=2 Linecode=1P_UG_AL_1/0_Brenau_2

New Line.l(r:p13udm2221-p13ulv1695) Units=km Length=0.013628500000000002 bus1=p13udm2221.1.2 bus2=p13ulv1695.1.2 switch=n enabled=y phases=2 Linecode=1P_UG_AL_1/0_Brenau_2

New Line.l(r:p13udm2222-p13ulv41306) Units=km Length=0.0145508 bus1=p13udm2222.1.2 bus2=p13ulv41306.1.2 switch=n enabled=y phases=2 Linecode=1P_UG_AL_1/0_Brenau_2

New Line.l(r:p13udm2221-p13udm2222) Units=km Length=0.00951296 bus1=p13udm2221.1.2 bus2=p13udm2222.1.2 switch=n enabled=y phases=2 Linecode=1P_UG_AL_1/0_Brenau_2

New Line.l(r:p13udm2221-p13udt534lv) Units=km Length=0.0170857 bus1=p13udt534lv.1.2 bus2=p13udm2221.1.2 switch=n enabled=y phases=2 Linecode=1P_UG_AL_1/0_Brenau_2

New Line.l(r:p13udm2226-p13ulv119742) Units=km Length=0.0145448 bus1=p13udm2226.1.2 bus2=p13ulv119742.1.2 switch=n enabled=y phases=2 Linecode=1P_UG_AL_1/0_Brenau_2

New Line.l(r:p13udm2224-p13ulv41324) Units=km Length=0.0148392 bus1=p13udm2224.1.2 bus2=p13ulv41324.1.2 switch=n enabled=y phases=2 Linecode=1P_UG_AL_1/0_Brenau_2

New Line.l(r:p13udm2223-p13ulv41311) Units=km Length=0.0159387 bus1=p13udm2223.1.2 bus2=p13ulv41311.1.2 switch=n enabled=y phases=2 Linecode=1P_OH_AL_2/0_Rucina_2

New Line.l(r:p13udm2223-p13udm2224) Units=km Length=0.04881200000000001 bus1=p13udm2224.1.2 bus2=p13udm2223.1.2 switch=n enabled=y phases=2 Linecode=1P_OH_AL_4/0_Zuzara_2

New Line.l(r:p13udm2224-p13udm2226) Units=km Length=0.0191298 bus1=p13udm2226.1.2 bus2=p13udm2224.1.2 switch=n enabled=y phases=2 Linecode=1P_UG_AL_1/0_Brenau_2

New Line.l(r:p13udm2226-p13udt534lv) Units=km Length=0.0170857 bus1=p13udt534lv.1.2 bus2=p13udm2226.1.2 switch=n enabled=y phases=2 Linecode=1P_UG_AL_4/0_Sweetbriar_2

New Line.l(r:p13udt536lv-p13ulv41367) Units=km Length=0.013672100000000001 bus1=p13udt536lv.1.2 bus2=p13ulv41367.1.2 switch=n enabled=y phases=2 Linecode=1P_UG_AL_1/0_Brenau_2

New Line.l(r:p13udm2229-p13ulv1698) Units=km Length=0.014004500000000001 bus1=p13udm2229.1.2 bus2=p13ulv1698.1.2 switch=n enabled=y phases=2 Linecode=1P_UG_AL_2/0_Converse_2

New Line.l(r:p13udm2229-p13ulv41355) Units=km Length=0.011839 bus1=p13udm2229.1.2 bus2=p13ulv41355.1.2 switch=n enabled=y phases=2 Linecode=1P_UG_AL_1/0_Brenau_2

New Line.l(r:p13udm2229-p13udt536lv) Units=km Length=0.00996414 bus1=p13udt536lv.1.2 bus2=p13udm2229.1.2 switch=n enabled=y phases=2 Linecode=1P_UG_AL_4/0_Sweetbriar_2

New Line.l(r:p13udm2233-p13ulv41375) Units=km Length=0.0134396 bus1=p13udm2233.1.2 bus2=p13ulv41375.1.2 switch=n enabled=y phases=2 Linecode=1P_UG_AL_1/0_Brenau_2

New Line.l(r:p13udm2230-p13ulv40176) Units=km Length=0.0350975 bus1=p13udm2230.1.2 bus2=p13ulv40176.1.2 switch=n enabled=y phases=2 Linecode=1P_UG_AL_1/0_Brenau_2

New Line.l(r:p13udm2230-p13udm2233) Units=km Length=0.009954520000000001 bus1=p13udm2233.1.2 bus2=p13udm2230.1.2 switch=n enabled=y phases=2 Linecode=1P_UG_AL_1/0_Brenau_2

New Line.l(r:p13udm2233-p13udt536lv) Units=km Length=0.00996689 bus1=p13udt536lv.1.2 bus2=p13udm2233.1.2 switch=n enabled=y phases=2 Linecode=1P_UG_AL_1/0_Brenau_2

New Line.l(r:p13udt537lv-p13ulv40200) Units=km Length=0.0145703 bus1=p13udt537lv.1.2 bus2=p13ulv40200.1.2 switch=n enabled=y phases=2 Linecode=1P_UG_AL_2/0_Converse_2

New Line.l(r:p13udt537lv-p13ulv40204) Units=km Length=0.013642200000000002 bus1=p13udt537lv.1.2 bus2=p13ulv40204.1.2 switch=n enabled=y phases=2 Linecode=1P_UG_AL_1/0_Brenau_2

New Line.l(r:p13udm2235-p13ulv40193) Units=km Length=0.0422736 bus1=p13udm2235.1.2 bus2=p13ulv40193.1.2 switch=n enabled=y phases=2 Linecode=1P_UG_AL_1/0_Brenau_2

New Line.l(r:p13udm2235-p13ulv40198) Units=km Length=0.0152315 bus1=p13udm2235.1.2 bus2=p13ulv40198.1.2 switch=n enabled=y phases=2 Linecode=1P_UG_AL_1/0_Brenau_2

New Line.l(r:p13udm2234-p13ulv1699) Units=km Length=0.014284900000000001 bus1=p13udm2234.1.2 bus2=p13ulv1699.1.2 switch=n enabled=y phases=2 Linecode=1P_UG_AL_1/0_Brenau_2

New Line.l(r:p13udm2234-p13udm2235) Units=km Length=0.00981579 bus1=p13udm2235.1.2 bus2=p13udm2234.1.2 switch=n enabled=y phases=2 Linecode=1P_UG_AL_1/0_Brenau_2

New Line.l(r:p13udm2235-p13udt537lv) Units=km Length=0.00982541 bus1=p13udt537lv.1.2 bus2=p13udm2235.1.2 switch=n enabled=y phases=2 Linecode=1P_UG_AL_4/0_Sweetbriar_2

New Line.l(r:p13udm2239-p13ulv40210) Units=km Length=0.0136827 bus1=p13udm2239.1.2 bus2=p13ulv40210.1.2 switch=n enabled=y phases=2 Linecode=1P_UG_AL_1/0_Brenau_2

New Line.l(r:p13udm2240-p13ulv40218) Units=km Length=0.0147936 bus1=p13udm2240.1.2 bus2=p13ulv40218.1.2 switch=n enabled=y phases=2 Linecode=1P_UG_AL_1/0_Brenau_2

New Line.l(r:p13udm2239-p13udm2240) Units=km Length=0.00982541 bus1=p13udm2239.1.2 bus2=p13udm2240.1.2 switch=n enabled=y phases=2 Linecode=1P_UG_AL_1/0_Brenau_2

New Line.l(r:p13udm2239-p13udt537lv) Units=km Length=0.00981579 bus1=p13udt537lv.1.2 bus2=p13udm2239.1.2 switch=n enabled=y phases=2 Linecode=1P_UG_AL_1/0_Brenau_2

New Line.l(r:p13udt538lv-p13ulv41364) Units=km Length=0.0170048 bus1=p13udt538lv.1.2 bus2=p13ulv41364.1.2 switch=n enabled=y phases=2 Linecode=1P_UG_AL_1/0_Brenau_2

New Line.l(r:p13udm2241-p13ulv1701) Units=km Length=0.0157845 bus1=p13udm2241.1.2 bus2=p13ulv1701.1.2 switch=n enabled=y phases=2 Linecode=1P_UG_AL_1/0_Brenau_2

New Line.l(r:p13udm2241-p13ulv41370) Units=km Length=0.0148995 bus1=p13udm2241.1.2 bus2=p13ulv41370.1.2 switch=n enabled=y phases=2 Linecode=1P_UG_AL_1/0_Brenau_2

New Line.l(r:p13udm2241-p13udt538lv) Units=km Length=0.00982541 bus1=p13udt538lv.1.2 bus2=p13udm2241.1.2 switch=n enabled=y phases=2 Linecode=1P_UG_AL_4/0_Sweetbriar_2

New Line.l(r:p13udm2243-p13ulv41365) Units=km Length=0.0150465 bus1=p13udm2243.1.2 bus2=p13ulv41365.1.2 switch=n enabled=y phases=2 Linecode=1P_UG_AL_1/0_Brenau_2

New Line.l(r:p13udm2243-p13ulv119737) Units=km Length=0.0153627 bus1=p13udm2243.1.2 bus2=p13ulv119737.1.2 switch=n enabled=y phases=2 Linecode=1P_UG_AL_4/0_Sweetbriar_2

New Line.l(r:p13udm2243-p13udt538lv) Units=km Length=0.00982541 bus1=p13udt538lv.1.2 bus2=p13udm2243.1.2 switch=n enabled=y phases=2 Linecode=1P_UG_AL_4/0_Sweetbriar_2

New Line.l(r:p13udt539lv-p13ulv39053) Units=km Length=0.0161348 bus1=p13udt539lv.1.2 bus2=p13ulv39053.1.2 switch=n enabled=y phases=2 Linecode=1P_UG_AL_1/0_Brenau_2

New Line.l(r:p13udm2246-p13ulv1703) Units=km Length=0.0144215 bus1=p13udm2246.1.2 bus2=p13ulv1703.1.2 switch=n enabled=y phases=2 Linecode=1P_UG_AL_1/0_Brenau_2

New Line.l(r:p13udm2248-p13ulv39025) Units=km Length=0.0135521 bus1=p13udm2248.1.2 bus2=p13ulv39025.1.2 switch=n enabled=y phases=2 Linecode=1P_UG_AL_1/0_Brenau_2

New Line.l(r:p13udm2248-p13ulv39055) Units=km Length=0.0139901 bus1=p13udm2248.1.2 bus2=p13ulv39055.1.2 switch=n enabled=y phases=2 Linecode=1P_UG_AL_1/0_Brenau_2

New Line.l(r:p13udm2246-p13udm2248) Units=km Length=0.00983379 bus1=p13udm2246.1.2 bus2=p13udm2248.1.2 switch=n enabled=y phases=2 Linecode=1P_UG_AL_1/0_Brenau_2

New Line.l(r:p13udm2246-p13udt539lv) Units=km Length=0.00984342 bus1=p13udt539lv.1.2 bus2=p13udm2246.1.2 switch=n enabled=y phases=2 Linecode=1P_UG_AL_4/0_Sweetbriar_2

New Line.l(r:p13udm2249-p13ulv39049) Units=km Length=0.013993 bus1=p13udm2249.1.2 bus2=p13ulv39049.1.2 switch=n enabled=y phases=2 Linecode=1P_UG_AL_1/0_Brenau_2

New Line.l(r:p13udm2247-p13ulv39020) Units=km Length=0.0153012 bus1=p13udm2247.1.2 bus2=p13ulv39020.1.2 switch=n enabled=y phases=2 Linecode=1P_UG_AL_1/0_Brenau_2

New Line.l(r:p13udm2247-p13udm2249) Units=km Length=0.00983379 bus1=p13udm2249.1.2 bus2=p13udm2247.1.2 switch=n enabled=y phases=2 Linecode=1P_UG_AL_1/0_Brenau_2

New Line.l(r:p13udm2249-p13udt539lv) Units=km Length=0.00983379 bus1=p13udt539lv.1.2 bus2=p13udm2249.1.2 switch=n enabled=y phases=2 Linecode=1P_UG_AL_1/0_Brenau_2

New Line.l(r:p13udt540lv-p13ulv1704) Units=km Length=0.0127769 bus1=p13udt540lv.1.2 bus2=p13ulv1704.1.2 switch=n enabled=y phases=2 Linecode=1P_UG_AL_1/0_Brenau_2

New Line.l(r:p13udt540lv-p13ulv37917) Units=km Length=0.0119385 bus1=p13udt540lv.1.2 bus2=p13ulv37917.1.2 switch=n enabled=y phases=2 Linecode=1P_UG_AL_1/0_Brenau_2

New Line.l(r:p13udm2253-p13ulv1706) Units=km Length=0.0139059 bus1=p13udm2253.1.2 bus2=p13ulv1706.1.2 switch=n enabled=y phases=2 Linecode=1P_UG_AL_1/0_Brenau_2

New Line.l(r:p13udm2253-p13ulv37920) Units=km Length=0.0132613 bus1=p13udm2253.1.2 bus2=p13ulv37920.1.2 switch=n enabled=y phases=2 Linecode=1P_UG_AL_1/0_Brenau_2

New Line.l(r:p13udm2253-p13udt540lv) Units=km Length=0.00913587 bus1=p13udt540lv.1.2 bus2=p13udm2253.1.2 switch=n enabled=y phases=2 Linecode=1P_UG_AL_2/0_Converse_2

New Line.l(r:p13udt541lv-p13ulv1710) Units=km Length=0.0128454 bus1=p13udt541lv.1.2 bus2=p13ulv1710.1.2 switch=n enabled=y phases=2 Linecode=1P_UG_AL_2/0_Converse_2

New Line.l(r:p13udm2256-p13ulv1707) Units=km Length=0.0138251 bus1=p13udm2256.1.2 bus2=p13ulv1707.1.2 switch=n enabled=y phases=2 Linecode=1P_UG_AL_1/0_Brenau_2

New Line.l(r:p13udm2257-p13ulv1709) Units=km Length=0.012482400000000001 bus1=p13udm2257.1.2 bus2=p13ulv1709.1.2 switch=n enabled=y phases=2 Linecode=1P_UG_AL_1/0_Brenau_2

New Line.l(r:p13udm2257-p13ulv37923) Units=km Length=0.0135803 bus1=p13udm2257.1.2 bus2=p13ulv37923.1.2 switch=n enabled=y phases=2 Linecode=1P_UG_AL_1/0_Brenau_2

New Line.l(r:p13udm2256-p13udm2257) Units=km Length=0.0091455 bus1=p13udm2256.1.2 bus2=p13udm2257.1.2 switch=n enabled=y phases=2 Linecode=1P_UG_AL_1/0_Brenau_2

New Line.l(r:p13udm2256-p13udt541lv) Units=km Length=0.0091386 bus1=p13udt541lv.1.2 bus2=p13udm2256.1.2 switch=n enabled=y phases=2 Linecode=1P_UG_AL_4/0_Sweetbriar_2

New Line.l(r:p13udm2259-p13ulv1712) Units=km Length=0.0115734 bus1=p13udm2259.1.2 bus2=p13ulv1712.1.2 switch=n enabled=y phases=2 Linecode=1P_UG_AL_1/0_Brenau_2

New Line.l(r:p13udm2261-p13ulv37942) Units=km Length=0.00872498 bus1=p13udm2261.1.2 bus2=p13ulv37942.1.2 switch=n enabled=y phases=2 Linecode=1P_UG_AL_1/0_Brenau_2

New Line.l(r:p13udm2259-p13udm2261) Units=km Length=0.00588337 bus1=p13udm2259.1.2 bus2=p13udm2261.1.2 switch=n enabled=y phases=2 Linecode=1P_UG_AL_1/0_Brenau_2

New Line.l(r:p13udm2259-p13udt541lv) Units=km Length=0.0182841 bus1=p13udt541lv.1.2 bus2=p13udm2259.1.2 switch=n enabled=y phases=2 Linecode=1P_UG_AL_4/0_Sweetbriar_2

New Line.l(r:p13udm2262-p13ulv1708) Units=km Length=0.0108149 bus1=p13udm2262.1.2 bus2=p13ulv1708.1.2 switch=n enabled=y phases=2 Linecode=1P_UG_AL_1/0_Brenau_2

New Line.l(r:p13udm2263-p13ulv37919) Units=km Length=0.015605300000000003 bus1=p13udm2263.1.2 bus2=p13ulv37919.1.2 switch=n enabled=y phases=2 Linecode=1P_UG_AL_1/0_Brenau_2

New Line.l(r:p13udm2262-p13udm2263) Units=km Length=0.0230194 bus1=p13udm2262.1.2 bus2=p13udm2263.1.2 switch=n enabled=y phases=2 Linecode=1P_UG_AL_1/0_Brenau_2

New Line.l(r:p13udm2265-p13ulv37943) Units=km Length=0.0136622 bus1=p13udm2265.1.2 bus2=p13ulv37943.1.2 switch=n enabled=y phases=2 Linecode=1P_UG_AL_1/0_Brenau_2

New Line.l(r:p13udm2262-p13udm2265) Units=km Length=0.00781798 bus1=p13udm2262.1.2 bus2=p13udm2265.1.2 switch=n enabled=y phases=2 Linecode=1P_UG_AL_1/0_Brenau_2

New Line.l(r:p13udm2262-p13udt542lv) Units=km Length=0.0169554 bus1=p13udt542lv.1.2 bus2=p13udm2262.1.2 switch=n enabled=y phases=2 Linecode=1P_UG_AL_4/0_Sweetbriar_2

New Line.l(r:p13udm2264-p13ulv37939) Units=km Length=0.0135613 bus1=p13udm2264.1.2 bus2=p13ulv37939.1.2 switch=n enabled=y phases=2 Linecode=1P_UG_AL_1/0_Brenau_2

New Line.l(r:p13udm2264-p13ulv37949) Units=km Length=0.0134025 bus1=p13udm2264.1.2 bus2=p13ulv37949.1.2 switch=n enabled=y phases=2 Linecode=1P_UG_AL_1/0_Brenau_2

New Line.l(r:p13udm2264-p13udt542lv) Units=km Length=0.0182907 bus1=p13udt542lv.1.2 bus2=p13udm2264.1.2 switch=n enabled=y phases=2 Linecode=1P_UG_AL_1/0_Brenau_2

New Line.l(r:p13udt543lv-p13ulv41384) Units=km Length=0.0100086 bus1=p13udt543lv.1.2 bus2=p13ulv41384.1.2 switch=n enabled=y phases=2 Linecode=1P_UG_AL_1/0_Brenau_2

New Line.l(r:p13udm2270-p13ulv41387) Units=km Length=0.0186998 bus1=p13udm2270.1.2 bus2=p13ulv41387.1.2 switch=n enabled=y phases=2 Linecode=1P_UG_AL_1/0_Brenau_2

New Line.l(r:p13udm2271-p13ulv41388) Units=km Length=0.0129749 bus1=p13udm2271.1.2 bus2=p13ulv41388.1.2 switch=n enabled=y phases=2 Linecode=1P_UG_AL_1/0_Brenau_2

New Line.l(r:p13udm2271-p13ulv41393) Units=km Length=0.0162322 bus1=p13udm2271.1.2 bus2=p13ulv41393.1.2 switch=n enabled=y phases=2 Linecode=1P_UG_AL_1/0_Brenau_2

New Line.l(r:p13udm2270-p13udm2271) Units=km Length=0.0051229 bus1=p13udm2270.1.2 bus2=p13udm2271.1.2 switch=n enabled=y phases=2 Linecode=1P_UG_AL_1/0_Brenau_2

New Line.l(r:p13udm2270-p13udt543lv) Units=km Length=0.00956683 bus1=p13udt543lv.1.2 bus2=p13udm2270.1.2 switch=n enabled=y phases=2 Linecode=1P_UG_AL_4/0_Sweetbriar_2

New Line.l(r:p13udm2273-p13ulv42827) Units=km Length=0.0307347 bus1=p13udm2273.1.2 bus2=p13ulv42827.1.2 switch=n enabled=y phases=2 Linecode=1P_UG_AL_1/0_Brenau_2

New Line.l(r:p13udm2267-p13ulv1713) Units=km Length=0.0160872 bus1=p13udm2267.1.2 bus2=p13ulv1713.1.2 switch=n enabled=y phases=2 Linecode=1P_UG_AL_1/0_Brenau_2

New Line.l(r:p13udm2267-p13ulv1714) Units=km Length=0.015314500000000002 bus1=p13udm2267.1.2 bus2=p13ulv1714.1.2 switch=n enabled=y phases=2 Linecode=1P_UG_AL_1/0_Brenau_2

New Line.l(r:p13udm2267-p13udm2273) Units=km Length=0.00914055 bus1=p13udm2273.1.2 bus2=p13udm2267.1.2 switch=n enabled=y phases=2 Linecode=1P_UG_AL_1/0_Brenau_2

New Line.l(r:p13udm2273-p13udt543lv) Units=km Length=0.00820739 bus1=p13udt543lv.1.2 bus2=p13udm2273.1.2 switch=n enabled=y phases=2 Linecode=1P_UG_AL_2/0_Converse_2

New Line.l(r:p13udt925lv-p13ulv44961) Units=km Length=0.0072580000000000006 bus1=p13udt925lv.1.2 bus2=p13ulv44961.1.2 switch=n enabled=y phases=2 Linecode=1P_OH_AL_2/0_Rucina_2

New Line.l(r:p13udt925lv-p13ulv44964) Units=km Length=0.0079649 bus1=p13udt925lv.1.2 bus2=p13ulv44964.1.2 switch=n enabled=y phases=2 Linecode=1P_OH_AL_2/0_Rucina_2

New Line.l(r:p13udm3949-p13ulv2630) Units=km Length=0.00846624 bus1=p13udm3949.1.2 bus2=p13ulv2630.1.2 switch=n enabled=y phases=2 Linecode=1P_OH_AL_2/0_Rucina_2

New Line.l(r:p13udm3949-p13udt925lv) Units=km Length=0.0494998 bus1=p13udt925lv.1.2 bus2=p13udm3949.1.2 switch=n enabled=y phases=2 Linecode=1P_OH_AL_4/0_Zuzara_2

New Line.l(r:p13udt927lv-p13ulv2632) Units=km Length=0.0319083 bus1=p13udt927lv.1.2 bus2=p13ulv2632.1.2 switch=n enabled=y phases=2 Linecode=1P_OH_AL_4/0_Zuzara_2

New Line.l(r:p13udt932lv-p13ulv2639) Units=km Length=0.0113364 bus1=p13udt932lv.1.2 bus2=p13ulv2639.1.2 switch=n enabled=y phases=2 Linecode=1P_UG_AL_1/0_Brenau_2

New Line.l(r:p13udm3974-p13ulv3218) Units=km Length=0.0111594 bus1=p13udm3974.1.2 bus2=p13ulv3218.1.2 switch=n enabled=y phases=2 Linecode=1P_UG_AL_1/0_Brenau_2

New Line.l(r:p13udm3974-p13udt932lv) Units=km Length=0.00979326 bus1=p13udt932lv.1.2 bus2=p13udm3974.1.2 switch=n enabled=y phases=2 Linecode=1P_UG_AL_1/0_Brenau_2

New Line.l(r:p13udm3975-p13ulv37566) Units=km Length=0.00814197 bus1=p13udm3975.1.2 bus2=p13ulv37566.1.2 switch=n enabled=y phases=2 Linecode=1P_UG_AL_4/0_Sweetbriar_2

New Line.l(r:p13udm3975-p13udt932lv) Units=km Length=0.0195766 bus1=p13udt932lv.1.2 bus2=p13udm3975.1.2 switch=n enabled=y phases=2 Linecode=1P_UG_AL_4/0_Sweetbriar_2

New Line.l(r:p13udt933lv-p13ulv37539) Units=km Length=0.0121866 bus1=p13udt933lv.1.2 bus2=p13ulv37539.1.2 switch=n enabled=y phases=2 Linecode=1P_UG_AL_1/0_Brenau_2

New Line.l(r:p13udm3977-p13ulv37525) Units=km Length=0.013231600000000001 bus1=p13udm3977.1.2 bus2=p13ulv37525.1.2 switch=n enabled=y phases=2 Linecode=1P_UG_AL_4/0_Sweetbriar_2

New Line.l(r:p13udm3981-p13ulv37542) Units=km Length=0.0128255 bus1=p13udm3981.1.2 bus2=p13ulv37542.1.2 switch=n enabled=y phases=2 Linecode=1P_UG_AL_1/0_Brenau_2

New Line.l(r:p13udm3977-p13udm3981) Units=km Length=0.0543191 bus1=p13udm3977.1.2 bus2=p13udm3981.1.2 switch=n enabled=y phases=2 Linecode=1P_UG_AL_1/0_Brenau_2

New Line.l(r:p13udm3977-p13udt933lv) Units=km Length=0.00905181 bus1=p13udt933lv.1.2 bus2=p13udm3977.1.2 switch=n enabled=y phases=2 Linecode=1P_UG_AL_4/0_Sweetbriar_2

New Line.l(r:p13udm3979-p13ulv37537) Units=km Length=0.0120504 bus1=p13udm3979.1.2 bus2=p13ulv37537.1.2 switch=n enabled=y phases=2 Linecode=1P_UG_AL_1/0_Brenau_2

New Line.l(r:p13udm3982-p13ulv37568) Units=km Length=0.00877385 bus1=p13udm3982.1.2 bus2=p13ulv37568.1.2 switch=n enabled=y phases=2 Linecode=1P_UG_AL_1/0_Brenau_2

New Line.l(r:p13udm3976-p13ulv2640) Units=km Length=0.0121138 bus1=p13udm3976.1.2 bus2=p13ulv2640.1.2 switch=n enabled=y phases=2 Linecode=1P_UG_AL_1/0_Brenau_2

New Line.l(r:p13udm3978-p13ulv37530) Units=km Length=0.00965445 bus1=p13udm3978.1.2 bus2=p13ulv37530.1.2 switch=n enabled=y phases=2 Linecode=1P_UG_AL_1/0_Brenau_2

New Line.l(r:p13udm3976-p13udm3978) Units=km Length=0.0467159 bus1=p13udm3976.1.2 bus2=p13udm3978.1.2 switch=n enabled=y phases=2 Linecode=1P_UG_AL_1/0_Brenau_2

New Line.l(r:p13udm3976-p13udm3982) Units=km Length=0.00853801 bus1=p13udm3982.1.2 bus2=p13udm3976.1.2 switch=n enabled=y phases=2 Linecode=1P_UG_AL_1/0_Brenau_2

New Line.l(r:p13udm3979-p13udm3982) Units=km Length=0.00853651 bus1=p13udm3979.1.2 bus2=p13udm3982.1.2 switch=n enabled=y phases=2 Linecode=1P_UG_AL_4/0_Sweetbriar_2

New Line.l(r:p13udm3979-p13udt933lv) Units=km Length=0.00906168 bus1=p13udt933lv.1.2 bus2=p13udm3979.1.2 switch=n enabled=y phases=2 Linecode=1P_UG_AL_4/0_Sweetbriar_2

New Line.l(r:p13udt934lv-p13ulv37640) Units=km Length=0.0444478 bus1=p13udt934lv.1.2 bus2=p13ulv37640.1.2 switch=n enabled=y phases=2 Linecode=1P_OH_AL_4/0_Zuzara_2

New Line.l(r:p13udt934lv-p13ulv37648) Units=km Length=0.015785 bus1=p13udt934lv.1.2 bus2=p13ulv37648.1.2 switch=n enabled=y phases=2 Linecode=1P_OH_AL_2/0_Rucina_2

New Line.l(r:p13udm3984-p13ulv2642) Units=km Length=0.010412 bus1=p13udm3984.1.2 bus2=p13ulv2642.1.2 switch=n enabled=y phases=2 Linecode=1P_OH_AL_2/0_Rucina_2

New Line.l(r:p13udm3983-p13ulv2641) Units=km Length=0.0122401 bus1=p13udm3983.1.2 bus2=p13ulv2641.1.2 switch=n enabled=y phases=2 Linecode=1P_OH_AL_2/0_Rucina_2

New Line.l(r:p13udm3983-p13udm3984) Units=km Length=0.0172406 bus1=p13udm3984.1.2 bus2=p13udm3983.1.2 switch=n enabled=y phases=2 Linecode=1P_OH_AL_2/0_Rucina_2

New Line.l(r:p13udm3984-p13udt934lv) Units=km Length=0.015746 bus1=p13udt934lv.1.2 bus2=p13udm3984.1.2 switch=n enabled=y phases=2 Linecode=1P_OH_AL_2/0_Rucina_2

New Line.l(r:p13udm3986-p13ulv37621) Units=km Length=0.0152942 bus1=p13udm3986.1.2 bus2=p13ulv37621.1.2 switch=n enabled=y phases=2 Linecode=1P_OH_AL_2/0_Rucina_2

New Line.l(r:p13udm3986-p13udt934lv) Units=km Length=0.0160114 bus1=p13udt934lv.1.2 bus2=p13udm3986.1.2 switch=n enabled=y phases=2 Linecode=1P_OH_AL_2/0_Rucina_2

New Line.l(r:p13udm3989-p13ulv37663) Units=km Length=0.015909 bus1=p13udm3989.1.2 bus2=p13ulv37663.1.2 switch=n enabled=y phases=2 Linecode=1P_OH_AL_2/0_Rucina_2

New Line.l(r:p13udm3985-p13ulv2686) Units=km Length=0.0148206 bus1=p13udm3985.1.2 bus2=p13ulv2686.1.2 switch=n enabled=y phases=2 Linecode=1P_OH_AL_2/0_Rucina_2

New Line.l(r:p13udm3985-p13udm3989) Units=km Length=0.0138106 bus1=p13udm3989.1.2 bus2=p13udm3985.1.2 switch=n enabled=y phases=2 Linecode=1P_OH_AL_2/0_Rucina_2

New Line.l(r:p13udm3989-p13udt934lv) Units=km Length=0.0138106 bus1=p13udt934lv.1.2 bus2=p13udm3989.1.2 switch=n enabled=y phases=2 Linecode=1P_OH_AL_2/0_Rucina_2

New Line.l(r:p13udt935lv-p13ulv2643) Units=km Length=0.0370775 bus1=p13udt935lv.1.2 bus2=p13ulv2643.1.2 switch=n enabled=y phases=2 Linecode=1P_UG_AL_1/0_Brenau_2

New Line.l(r:p13udt935lv-p13ulv37629) Units=km Length=0.0197263 bus1=p13udt935lv.1.2 bus2=p13ulv37629.1.2 switch=n enabled=y phases=2 Linecode=1P_UG_AL_1/0_Brenau_2

New Line.l(r:p13udm3991-p13ulv2644) Units=km Length=0.0132374 bus1=p13udm3991.1.2 bus2=p13ulv2644.1.2 switch=n enabled=y phases=2 Linecode=1P_UG_AL_4/0_Sweetbriar_2

New Line.l(r:p13udm3991-p13ulv46332) Units=km Length=0.0121601 bus1=p13udm3991.1.2 bus2=p13ulv46332.1.2 switch=n enabled=y phases=2 Linecode=1P_UG_AL_1/0_Brenau_2

New Line.l(r:p13udm3991-p13udt935lv) Units=km Length=0.00949746 bus1=p13udt935lv.1.2 bus2=p13udm3991.1.2 switch=n enabled=y phases=2 Linecode=1P_UG_AL_4/0_Sweetbriar_2

New Line.l(r:p13udt940lv-p13ulv2649) Units=km Length=0.0108135 bus1=p13udt940lv.1.2 bus2=p13ulv2649.1.2 switch=n enabled=y phases=2 Linecode=1P_OH_AL_2/0_Rucina_2

New Line.l(r:p13udt941lv-p13ulv2650) Units=km Length=0.0138959 bus1=p13udt941lv.1.2 bus2=p13ulv2650.1.2 switch=n enabled=y phases=2 Linecode=1P_OH_AL_2/0_Rucina_2

New Line.l(r:p13udt941lv-p13ulv44997) Units=km Length=0.0112049 bus1=p13udt941lv.1.2 bus2=p13ulv44997.1.2 switch=n enabled=y phases=2 Linecode=1P_OH_AL_2/0_Rucina_2

New Line.l(r:p13udm4002-p13ulv2651) Units=km Length=0.011793800000000002 bus1=p13udm4002.1.2 bus2=p13ulv2651.1.2 switch=n enabled=y phases=2 Linecode=1P_OH_AL_2/0_Rucina_2

New Line.l(r:p13udm4002-p13udt941lv) Units=km Length=0.0198176 bus1=p13udt941lv.1.2 bus2=p13udm4002.1.2 switch=n enabled=y phases=2 Linecode=1P_OH_AL_2/0_Rucina_2

New Line.l(r:p13udm4004-p13ulv45007) Units=km Length=0.0120999 bus1=p13udm4004.1.2 bus2=p13ulv45007.1.2 switch=n enabled=y phases=2 Linecode=1P_OH_AL_2/0_Rucina_2

New Line.l(r:p13udm4004-p13udt941lv) Units=km Length=0.0129983 bus1=p13udt941lv.1.2 bus2=p13udm4004.1.2 switch=n enabled=y phases=2 Linecode=1P_OH_AL_2/0_Rucina_2

New Line.l(r:p13udt942lv-p13ulv2652) Units=km Length=0.0258265 bus1=p13udt942lv.1.2 bus2=p13ulv2652.1.2 switch=n enabled=y phases=2 Linecode=1P_OH_AL_2/0_Rucina_2

New Line.l(r:p13udm4092-p13ulv2680) Units=km Length=0.00910712 bus1=p13udm4092.1.2 bus2=p13ulv2680.1.2 switch=n enabled=y phases=2 Linecode=1P_OH_AL_2/0_Rucina_2

New Line.l(r:p13udm4092-p13udt960lv) Units=km Length=0.0417436 bus1=p13udt960lv.1.2 bus2=p13udm4092.1.2 switch=n enabled=y phases=2 Linecode=1P_OH_AL_4/0_Zuzara_2

New Line.l(r:p13udm4093-p13ulv44982) Units=km Length=0.0162284 bus1=p13udm4093.1.2 bus2=p13ulv44982.1.2 switch=n enabled=y phases=2 Linecode=1P_OH_AL_2/0_Rucina_2

New Line.l(r:p13udm4093-p13udt960lv) Units=km Length=0.0131837 bus1=p13udt960lv.1.2 bus2=p13udm4093.1.2 switch=n enabled=y phases=2 Linecode=1P_OH_AL_2/0_Rucina_2

New Line.l(r:p13udt964lv-p13ulv2691) Units=km Length=0.0127722 bus1=p13udt964lv.1.2 bus2=p13ulv2691.1.2 switch=n enabled=y phases=2 Linecode=1P_UG_AL_1/0_Brenau_2

New Line.l(r:p13udm4123-p13ulv2690) Units=km Length=0.0131623 bus1=p13udm4123.1.2 bus2=p13ulv2690.1.2 switch=n enabled=y phases=2 Linecode=1P_UG_AL_1/0_Brenau_2

New Line.l(r:p13udm4125-p13ulv37594) Units=km Length=0.0127421 bus1=p13udm4125.1.2 bus2=p13ulv37594.1.2 switch=n enabled=y phases=2 Linecode=1P_UG_AL_1/0_Brenau_2

New Line.l(r:p13udm4126-p13ulv37597) Units=km Length=0.01654 bus1=p13udm4126.1.2 bus2=p13ulv37597.1.2 switch=n enabled=y phases=2 Linecode=1P_UG_AL_1/0_Brenau_2

New Line.l(r:p13udm4125-p13udm4126) Units=km Length=0.0099445 bus1=p13udm4125.1.2 bus2=p13udm4126.1.2 switch=n enabled=y phases=2 Linecode=1P_UG_AL_1/0_Brenau_2

New Line.l(r:p13udm4123-p13udm4125) Units=km Length=0.00994286 bus1=p13udm4123.1.2 bus2=p13udm4125.1.2 switch=n enabled=y phases=2 Linecode=1P_UG_AL_1/0_Brenau_2

New Line.l(r:p13udm4123-p13udt964lv) Units=km Length=0.00927704 bus1=p13udt964lv.1.2 bus2=p13udm4123.1.2 switch=n enabled=y phases=2 Linecode=1P_UG_AL_2/0_Converse_2

New Line.l(r:p13udm4127-p13ulv37600) Units=km Length=0.0161482 bus1=p13udm4127.1.2 bus2=p13ulv37600.1.2 switch=n enabled=y phases=2 Linecode=1P_UG_AL_1/0_Brenau_2

New Line.l(r:p13udm4128-p13ulv37601) Units=km Length=0.0155132 bus1=p13udm4128.1.2 bus2=p13ulv37601.1.2 switch=n enabled=y phases=2 Linecode=1P_UG_AL_1/0_Brenau_2

New Line.l(r:p13udm4127-p13udm4128) Units=km Length=0.00927704 bus1=p13udm4127.1.2 bus2=p13udm4128.1.2 switch=n enabled=y phases=2 Linecode=1P_UG_AL_1/0_Brenau_2

New Line.l(r:p13udm4127-p13udt964lv) Units=km Length=0.00927539 bus1=p13udt964lv.1.2 bus2=p13udm4127.1.2 switch=n enabled=y phases=2 Linecode=1P_UG_AL_1/0_Brenau_2

New Line.l(r:p13udt1211lv-p13ulv38721) Units=km Length=0.0130442 bus1=p13udt1211lv.1.2 bus2=p13ulv38721.1.2 switch=n enabled=y phases=2 Linecode=1P_UG_AL_1/0_Brenau_2

New Line.l(r:p13udt1211lv-p13ulv38780) Units=km Length=0.0135776 bus1=p13udt1211lv.1.2 bus2=p13ulv38780.1.2 switch=n enabled=y phases=2 Linecode=1P_UG_AL_2/0_Converse_2

New Line.l(r:p13udm5157-p13ulv3213) Units=km Length=0.013497 bus1=p13udm5157.1.2 bus2=p13ulv3213.1.2 switch=n enabled=y phases=2 Linecode=1P_UG_AL_4/0_Sweetbriar_2

New Line.l(r:p13udm5157-p13ulv38715) Units=km Length=0.0122528 bus1=p13udm5157.1.2 bus2=p13ulv38715.1.2 switch=n enabled=y phases=2 Linecode=1P_UG_AL_2/0_Converse_2

New Line.l(r:p13udm5157-p13udt1211lv) Units=km Length=0.009578 bus1=p13udt1211lv.1.2 bus2=p13udm5157.1.2 switch=n enabled=y phases=2 Linecode=1P_UG_AL_4/0_Sweetbriar_2

New Line.l(r:p13udm5163-p13ulv37490) Units=km Length=0.00869741 bus1=p13udm5163.1.2 bus2=p13ulv37490.1.2 switch=n enabled=y phases=2 Linecode=1P_UG_AL_1/0_Brenau_2

New Line.l(r:p13udm5169-p13ulv41932) Units=km Length=0.00908785 bus1=p13udm5169.1.2 bus2=p13ulv41932.1.2 switch=n enabled=y phases=2 Linecode=1P_UG_AL_1/0_Brenau_2

New Line.l(r:p13udm5162-p13ulv37476) Units=km Length=0.0104145 bus1=p13udm5162.1.2 bus2=p13ulv37476.1.2 switch=n enabled=y phases=2 Linecode=1P_UG_AL_1/0_Brenau_2

New Line.l(r:p13udm5162-p13udm5169) Units=km Length=0.0183247 bus1=p13udm5169.1.2 bus2=p13udm5162.1.2 switch=n enabled=y phases=2 Linecode=1P_UG_AL_1/0_Brenau_2

New Line.l(r:p13udm5170-p13ulv41952) Units=km Length=0.0117487 bus1=p13udm5170.1.2 bus2=p13ulv41952.1.2 switch=n enabled=y phases=2 Linecode=1P_UG_AL_1/0_Brenau_2

New Line.l(r:p13udm5169-p13udm5170) Units=km Length=0.0127913 bus1=p13udm5169.1.2 bus2=p13udm5170.1.2 switch=n enabled=y phases=2 Linecode=1P_UG_AL_1/0_Brenau_2

New Line.l(r:p13udm5163-p13udm5169) Units=km Length=0.0187772 bus1=p13udm5163.1.2 bus2=p13udm5169.1.2 switch=n enabled=y phases=2 Linecode=1P_UG_AL_2/0_Converse_2

New Line.l(r:p13udm5163-p13udt1212lv) Units=km Length=0.00961742 bus1=p13udt1212lv.1.2 bus2=p13udm5163.1.2 switch=n enabled=y phases=2 Linecode=1P_UG_AL_4/0_Sweetbriar_2

New Line.l(r:p13udm5165-p13ulv37500) Units=km Length=0.0121334 bus1=p13udm5165.1.2 bus2=p13ulv37500.1.2 switch=n enabled=y phases=2 Linecode=1P_UG_AL_1/0_Brenau_2

New Line.l(r:p13udm5165-p13ulv37544) Units=km Length=0.0126673 bus1=p13udm5165.1.2 bus2=p13ulv37544.1.2 switch=n enabled=y phases=2 Linecode=1P_UG_AL_1/0_Brenau_2

New Line.l(r:p13udm5164-p13ulv37495) Units=km Length=0.0134918 bus1=p13udm5164.1.2 bus2=p13ulv37495.1.2 switch=n enabled=y phases=2 Linecode=1P_UG_AL_1/0_Brenau_2

New Line.l(r:p13udm5164-p13ulv37547) Units=km Length=0.012902000000000002 bus1=p13udm5164.1.2 bus2=p13ulv37547.1.2 switch=n enabled=y phases=2 Linecode=1P_UG_AL_1/0_Brenau_2

New Line.l(r:p13udm5161-p13ulv3214) Units=km Length=0.0145609 bus1=p13udm5161.1.2 bus2=p13ulv3214.1.2 switch=n enabled=y phases=2 Linecode=1P_UG_AL_1/0_Brenau_2

New Line.l(r:p13udm5161-p13ulv37549) Units=km Length=0.0134221 bus1=p13udm5161.1.2 bus2=p13ulv37549.1.2 switch=n enabled=y phases=2 Linecode=1P_UG_AL_1/0_Brenau_2

New Line.l(r:p13udm5161-p13udm5164) Units=km Length=0.00960588 bus1=p13udm5164.1.2 bus2=p13udm5161.1.2 switch=n enabled=y phases=2 Linecode=1P_UG_AL_1/0_Brenau_2

New Line.l(r:p13udm5164-p13udm5165) Units=km Length=0.00961742 bus1=p13udm5165.1.2 bus2=p13udm5164.1.2 switch=n enabled=y phases=2 Linecode=1P_UG_AL_4/0_Sweetbriar_2

New Line.l(r:p13udm5165-p13udt1212lv) Units=km Length=0.00961574 bus1=p13udt1212lv.1.2 bus2=p13udm5165.1.2 switch=n enabled=y phases=2 Linecode=1P_UG_AL_4/0_Sweetbriar_2

New Line.l(r:p13udt1213lv-p13ulv3215) Units=km Length=0.0155397 bus1=p13udt1213lv.1.2 bus2=p13ulv3215.1.2 switch=n enabled=y phases=2 Linecode=1P_UG_AL_1/0_Brenau_2

New Line.l(r:p13udt1213lv-p13ulv3225) Units=km Length=0.0132156 bus1=p13udt1213lv.1.2 bus2=p13ulv3225.1.2 switch=n enabled=y phases=2 Linecode=1P_UG_AL_1/0_Brenau_2

New Line.l(r:p13udm5172-p13ulv3224) Units=km Length=0.0125048 bus1=p13udm5172.1.2 bus2=p13ulv3224.1.2 switch=n enabled=y phases=2 Linecode=1P_UG_AL_1/0_Brenau_2

New Line.l(r:p13udm5172-p13ulv37493) Units=km Length=0.0127006 bus1=p13udm5172.1.2 bus2=p13ulv37493.1.2 switch=n enabled=y phases=2 Linecode=1P_UG_AL_1/0_Brenau_2

New Line.l(r:p13udm5172-p13ulv37573) Units=km Length=0.0365365 bus1=p13udm5172.1.2 bus2=p13ulv37573.1.2 switch=n enabled=y phases=2 Linecode=1P_UG_AL_1/0_Brenau_2

New Line.l(r:p13udm5172-p13udt1213lv) Units=km Length=0.00961574 bus1=p13udt1213lv.1.2 bus2=p13udm5172.1.2 switch=n enabled=y phases=2 Linecode=1P_UG_AL_4/0_Sweetbriar_2

New Line.l(r:p13udm5176-p13ulv38797) Units=km Length=0.0110764 bus1=p13udm5176.1.2 bus2=p13ulv38797.1.2 switch=n enabled=y phases=2 Linecode=1P_UG_AL_1/0_Brenau_2

New Line.l(r:p13udm5176-p13udt1213lv) Units=km Length=0.112672 bus1=p13udt1213lv.1.2 bus2=p13udm5176.1.2 switch=n enabled=y phases=2 Linecode=1P_UG_AL_1/0_Brenau_2

New Line.l(r:p13udt1214lv-p13ulv3216) Units=km Length=0.0119263 bus1=p13udt1214lv.1.2 bus2=p13ulv3216.1.2 switch=n enabled=y phases=2 Linecode=1P_UG_AL_1/0_Brenau_2

New Line.l(r:p13udm5178-p13ulv3217) Units=km Length=0.0118589 bus1=p13udm5178.1.2 bus2=p13ulv3217.1.2 switch=n enabled=y phases=2 Linecode=1P_UG_AL_1/0_Brenau_2

New Line.l(r:p13udm5182-p13ulv41975) Units=km Length=0.00809378 bus1=p13udm5182.1.2 bus2=p13ulv41975.1.2 switch=n enabled=y phases=2 Linecode=1P_OH_AL_2/0_Rucina_2

New Line.l(r:p13udm5178-p13udm5182) Units=km Length=0.0121797 bus1=p13udm5178.1.2 bus2=p13udm5182.1.2 switch=n enabled=y phases=2 Linecode=1P_OH_AL_2/0_Rucina_2

New Line.l(r:p13udm5178-p13udt1214lv) Units=km Length=0.00997541 bus1=p13udt1214lv.1.2 bus2=p13udm5178.1.2 switch=n enabled=y phases=2 Linecode=1P_UG_AL_1/0_Brenau_2

New Line.l(r:p13udm5179-p13ulv37559) Units=km Length=0.0111557 bus1=p13udm5179.1.2 bus2=p13ulv37559.1.2 switch=n enabled=y phases=2 Linecode=1P_UG_AL_1/0_Brenau_2

New Line.l(r:p13udm5179-p13ulv41969) Units=km Length=0.0134801 bus1=p13udm5179.1.2 bus2=p13ulv41969.1.2 switch=n enabled=y phases=2 Linecode=1P_UG_AL_1/0_Brenau_2

New Line.l(r:p13udm5180-p13ulv41963) Units=km Length=0.0140023 bus1=p13udm5180.1.2 bus2=p13ulv41963.1.2 switch=n enabled=y phases=2 Linecode=1P_UG_AL_1/0_Brenau_2

New Line.l(r:p13udm5179-p13udm5180) Units=km Length=0.00997541 bus1=p13udm5179.1.2 bus2=p13udm5180.1.2 switch=n enabled=y phases=2 Linecode=1P_UG_AL_1/0_Brenau_2

New Line.l(r:p13udm5179-p13udt1214lv) Units=km Length=0.00996547 bus1=p13udt1214lv.1.2 bus2=p13udm5179.1.2 switch=n enabled=y phases=2 Linecode=1P_UG_AL_4/0_Sweetbriar_2

New Line.l(r:p13udt1215lv-p13ulv37517) Units=km Length=0.0148529 bus1=p13udt1215lv.1.2 bus2=p13ulv37517.1.2 switch=n enabled=y phases=2 Linecode=1P_UG_AL_1/0_Brenau_2

New Line.l(r:p13udt1215lv-p13ulv37562) Units=km Length=0.0130844 bus1=p13udt1215lv.1.2 bus2=p13ulv37562.1.2 switch=n enabled=y phases=2 Linecode=1P_UG_AL_1/0_Brenau_2

New Line.l(r:p13udm5183-p13ulv3220) Units=km Length=0.019944 bus1=p13udm5183.1.2 bus2=p13ulv3220.1.2 switch=n enabled=y phases=2 Linecode=1P_UG_AL_1/0_Brenau_2

New Line.l(r:p13udm5183-p13ulv37526) Units=km Length=0.0105147 bus1=p13udm5183.1.2 bus2=p13ulv37526.1.2 switch=n enabled=y phases=2 Linecode=1P_UG_AL_1/0_Brenau_2

New Line.l(r:p13udm5183-p13udt1215lv) Units=km Length=0.00961574 bus1=p13udt1215lv.1.2 bus2=p13udm5183.1.2 switch=n enabled=y phases=2 Linecode=1P_UG_AL_4/0_Sweetbriar_2

New Line.l(r:p13udm5184-p13ulv37513) Units=km Length=0.0144631 bus1=p13udm5184.1.2 bus2=p13ulv37513.1.2 switch=n enabled=y phases=2 Linecode=1P_UG_AL_1/0_Brenau_2

New Line.l(r:p13udm5184-p13ulv37558) Units=km Length=0.011429 bus1=p13udm5184.1.2 bus2=p13ulv37558.1.2 switch=n enabled=y phases=2 Linecode=1P_UG_AL_1/0_Brenau_2

New Line.l(r:p13udm5184-p13udt1215lv) Units=km Length=0.00961742 bus1=p13udt1215lv.1.2 bus2=p13udm5184.1.2 switch=n enabled=y phases=2 Linecode=1P_UG_AL_1/0_Brenau_2

New Line.l(r:p13udt1375lv-p13ulv36875) Units=km Length=0.00981803 bus1=p13udt1375lv.1.2 bus2=p13ulv36875.1.2 switch=n enabled=y phases=2 Linecode=1P_UG_AL_1/0_Brenau_2

New Line.l(r:p13udt1375lv-p13ulv36915) Units=km Length=0.00672912 bus1=p13udt1375lv.1.2 bus2=p13ulv36915.1.2 switch=n enabled=y phases=2 Linecode=1P_UG_AL_1/0_Brenau_2

New Line.l(r:p13udm5978-p13ulv36874) Units=km Length=0.00905297 bus1=p13udm5978.1.2 bus2=p13ulv36874.1.2 switch=n enabled=y phases=2 Linecode=1P_UG_AL_1/0_Brenau_2

New Line.l(r:p13udm5976-p13ulv3595) Units=km Length=0.009130530000000001 bus1=p13udm5976.1.2 bus2=p13ulv3595.1.2 switch=n enabled=y phases=2 Linecode=1P_UG_AL_1/0_Brenau_2

New Line.l(r:p13udm5975-p13ulv3594) Units=km Length=0.00949073 bus1=p13udm5975.1.2 bus2=p13ulv3594.1.2 switch=n enabled=y phases=2 Linecode=1P_UG_AL_1/0_Brenau_2

New Line.l(r:p13udm5975-p13udm5976) Units=km Length=0.009920250000000002 bus1=p13udm5976.1.2 bus2=p13udm5975.1.2 switch=n enabled=y phases=2 Linecode=1P_UG_AL_1/0_Brenau_2

New Line.l(r:p13udm5976-p13udm5978) Units=km Length=0.00992837 bus1=p13udm5978.1.2 bus2=p13udm5976.1.2 switch=n enabled=y phases=2 Linecode=1P_UG_AL_2/0_Converse_2

New Line.l(r:p13udm5978-p13udt1375lv) Units=km Length=0.009920250000000002 bus1=p13udt1375lv.1.2 bus2=p13udm5978.1.2 switch=n enabled=y phases=2 Linecode=1P_UG_AL_4/0_Sweetbriar_2

New Line.l(r:p13udm5981-p13ulv36905) Units=km Length=0.0122699 bus1=p13udm5981.1.2 bus2=p13ulv36905.1.2 switch=n enabled=y phases=2 Linecode=1P_UG_AL_1/0_Brenau_2

New Line.l(r:p13udm5977-p13ulv3603) Units=km Length=0.0116406 bus1=p13udm5977.1.2 bus2=p13ulv3603.1.2 switch=n enabled=y phases=2 Linecode=1P_UG_AL_1/0_Brenau_2

New Line.l(r:p13udm5977-p13udm5981) Units=km Length=0.0498049 bus1=p13udm5981.1.2 bus2=p13udm5977.1.2 switch=n enabled=y phases=2 Linecode=1P_UG_AL_1/0_Brenau_2

New Line.l(r:p13udm5980-p13ulv36885) Units=km Length=0.012347400000000001 bus1=p13udm5980.1.2 bus2=p13ulv36885.1.2 switch=n enabled=y phases=2 Linecode=1P_UG_AL_1/0_Brenau_2

New Line.l(r:p13udm5980-p13udm5981) Units=km Length=0.00908798 bus1=p13udm5981.1.2 bus2=p13udm5980.1.2 switch=n enabled=y phases=2 Linecode=1P_UG_AL_1/0_Brenau_2

New Line.l(r:p13udm5981-p13udt1375lv) Units=km Length=0.0198469 bus1=p13udt1375lv.1.2 bus2=p13udm5981.1.2 switch=n enabled=y phases=2 Linecode=1P_UG_AL_4/0_Sweetbriar_2

New Line.l(r:p13udt1376lv-p13ulv3598) Units=km Length=0.0116026 bus1=p13udt1376lv.1.2 bus2=p13ulv3598.1.2 switch=n enabled=y phases=2 Linecode=1P_OH_AL_2/0_Rucina_2

New Line.l(r:p13udt1376lv-p13ulv36951) Units=km Length=0.0121912 bus1=p13udt1376lv.1.2 bus2=p13ulv36951.1.2 switch=n enabled=y phases=2 Linecode=1P_OH_AL_2/0_Rucina_2

New Line.l(r:p13udm5983-p13ulv3596) Units=km Length=0.009819130000000002 bus1=p13udm5983.1.2 bus2=p13ulv3596.1.2 switch=n enabled=y phases=2 Linecode=1P_OH_AL_2/0_Rucina_2

New Line.l(r:p13udm5983-p13ulv36967) Units=km Length=0.0117671 bus1=p13udm5983.1.2 bus2=p13ulv36967.1.2 switch=n enabled=y phases=2 Linecode=1P_OH_AL_2/0_Rucina_2

New Line.l(r:p13udm5983-p13udt1376lv) Units=km Length=0.0199828 bus1=p13udt1376lv.1.2 bus2=p13udm5983.1.2 switch=n enabled=y phases=2 Linecode=1P_OH_AL_2/0_Rucina_2

New Line.l(r:p13udm5984-p13ulv3597) Units=km Length=0.009898 bus1=p13udm5984.1.2 bus2=p13ulv3597.1.2 switch=n enabled=y phases=2 Linecode=1P_OH_AL_2/0_Rucina_2

New Line.l(r:p13udm5984-p13ulv36939) Units=km Length=0.013871000000000001 bus1=p13udm5984.1.2 bus2=p13ulv36939.1.2 switch=n enabled=y phases=2 Linecode=1P_OH_AL_2/0_Rucina_2

New Line.l(r:p13udm5984-p13ulv36946) Units=km Length=0.0122634 bus1=p13udm5984.1.2 bus2=p13ulv36946.1.2 switch=n enabled=y phases=2 Linecode=1P_OH_AL_2/0_Rucina_2

New Line.l(r:p13udm5984-p13ulv36996) Units=km Length=0.0108901 bus1=p13udm5984.1.2 bus2=p13ulv36996.1.2 switch=n enabled=y phases=2 Linecode=1P_OH_AL_2/0_Rucina_2

New Line.l(r:p13udm5984-p13udt1376lv) Units=km Length=0.0199828 bus1=p13udt1376lv.1.2 bus2=p13udm5984.1.2 switch=n enabled=y phases=2 Linecode=1P_OH_AL_2/0_Rucina_2

New Line.l(r:p13udt1377lv-p13ulv3600) Units=km Length=0.010316600000000002 bus1=p13udt1377lv.1.2 bus2=p13ulv3600.1.2 switch=n enabled=y phases=2 Linecode=1P_UG_AL_1/0_Brenau_2

New Line.l(r:p13udm5991-p13ulv3599) Units=km Length=0.0104512 bus1=p13udm5991.1.2 bus2=p13ulv3599.1.2 switch=n enabled=y phases=2 Linecode=1P_UG_AL_1/0_Brenau_2

New Line.l(r:p13udm5991-p13ulv45783) Units=km Length=0.0116635 bus1=p13udm5991.1.2 bus2=p13ulv45783.1.2 switch=n enabled=y phases=2 Linecode=1P_UG_AL_1/0_Brenau_2

New Line.l(r:p13udm6000-p13ulv45829) Units=km Length=0.0098302 bus1=p13udm6000.1.2 bus2=p13ulv45829.1.2 switch=n enabled=y phases=2 Linecode=1P_UG_AL_1/0_Brenau_2

New Line.l(r:p13udm5991-p13udm6000) Units=km Length=0.00969165 bus1=p13udm5991.1.2 bus2=p13udm6000.1.2 switch=n enabled=y phases=2 Linecode=1P_UG_AL_1/0_Brenau_2

New Line.l(r:p13udm5991-p13udt1377lv) Units=km Length=0.0193833 bus1=p13udt1377lv.1.2 bus2=p13udm5991.1.2 switch=n enabled=y phases=2 Linecode=1P_UG_AL_2/0_Converse_2

New Line.l(r:p13udm5997-p13ulv45784) Units=km Length=0.011417300000000002 bus1=p13udm5997.1.2 bus2=p13ulv45784.1.2 switch=n enabled=y phases=2 Linecode=1P_UG_AL_1/0_Brenau_2

New Line.l(r:p13udm5997-p13ulv45818) Units=km Length=0.0108706 bus1=p13udm5997.1.2 bus2=p13ulv45818.1.2 switch=n enabled=y phases=2 Linecode=1P_UG_AL_1/0_Brenau_2

New Line.l(r:p13udm5995-p13ulv45781) Units=km Length=0.0107842 bus1=p13udm5995.1.2 bus2=p13ulv45781.1.2 switch=n enabled=y phases=2 Linecode=1P_UG_AL_1/0_Brenau_2

...